Version 4
SHEET 1 1032 704
WIRE 736 208 672 208
WIRE 880 208 816 208
WIRE 528 400 352 400
WIRE 672 400 672 208
WIRE 672 400 608 400
WIRE 736 400 672 400
WIRE 880 416 880 208
WIRE 880 416 800 416
WIRE 960 416 880 416
WIRE 736 432 672 432
WIRE 352 496 352 400
WIRE 672 512 672 432
WIRE 352 640 352 576
FLAG 352 640 0
FLAG 672 512 0
FLAG 960 416 Vout
SYMBOL voltage 352 480 R0
WINDOW 123 24 124 Left 2
WINDOW 39 0 0 Left 0
SYMATTR InstName Vin
SYMATTR Value SINE(0 1 500)
SYMATTR Value2 AC 1
SYMBOL lm358 768 352 R0
SYMATTR InstName U1
SYMBOL res 624 384 R90
WINDOW 0 0 56 VBottom 2
WINDOW 3 32 56 VTop 2
SYMATTR InstName R1
SYMATTR Value 1k
SYMBOL res 832 192 R90
WINDOW 0 0 56 VBottom 2
WINDOW 3 32 56 VTop 2
SYMATTR InstName R2
SYMATTR Value 5k
TEXT 376 688 Left 2 !.tran 5m
